* NGSPICE file created from relax_oscillator_tb.ext - technology: sky130A

.subckt relax_oscillator_tb Vdd out rst_rc Bit5 Bit4 Bit3 Bit2 Bit1 Bit0 gnd
X0 x5.sky130_fd_pr__cap_mim_m3_2_SLGBQV_2.C2.t0 Bit4.t0 gnd.t5 gnd.t4 sky130_fd_pr__nfet_01v8 ad=3.045 pd=21.58 as=3.045 ps=21.58 w=10.5 l=0.15
X1 x3.XM5.S x3.XM3.S gnd.t7 gnd.t6 sky130_fd_pr__nfet_01v8 ad=0.29 pd=2.58 as=0.29 ps=2.58 w=1 l=0.75
X2 x3.XM9.S x3.XM7.S gnd.t66 gnd.t65 sky130_fd_pr__nfet_01v8 ad=0.29 pd=2.58 as=0.29 ps=2.58 w=1 l=0.75
X3 x2.XM3.S x2.XM1.S gnd.t74 gnd.t73 sky130_fd_pr__nfet_01v8 ad=0.29 pd=2.58 as=0.29 ps=2.58 w=1 l=0.75
X4 x5.Phi_1.t0 x4.QB Vdd.t41 Vdd.t40 sky130_fd_pr__pfet_01v8 ad=0.435 pd=3.58 as=0.435 ps=3.58 w=1.5 l=0.15
X5 x1.XM3.S x5.Vplus.t4 x1.XM3.D.t0 gnd.t64 sky130_fd_pr__nfet_01v8 ad=1.0875 pd=8.08 as=1.0875 ps=8.08 w=3.75 l=0.75
X6 gnd.t69 rst_rc.t0 x5.Vplus.t2 gnd.t10 sky130_fd_pr__nfet_01v8 ad=3.045 pd=21.58 as=3.045 ps=21.58 w=10.5 l=0.15
X7 x5.XM13.S Bit5.t0 x5.sky130_fd_pr__cap_mim_m3_2_SLGBQV_8.C2.t2 gnd.t78 sky130_fd_pr__nfet_01v8 ad=3.045 pd=21.58 as=3.045 ps=21.58 w=10.5 l=0.15
X8 x2.XM7.S x2.XM5.S Vdd.t39 Vdd.t38 sky130_fd_pr__pfet_01v8 ad=0.58 pd=4.58 as=0.58 ps=4.58 w=2 l=0.75
X9 x5.Vminus.t3 x5.XC16.C2 sky130_fd_pr__cap_mim_m3_2 l=15 w=26.15
X10 out.t1 x1.OutN Vdd.t15 Vdd.t14 sky130_fd_pr__pfet_01v8 ad=0.87 pd=6.58 as=0.87 ps=6.58 w=3 l=0.15
X11 x3.XM1.S out.t3 gnd.t62 gnd.t61 sky130_fd_pr__nfet_01v8 ad=0.29 pd=2.58 as=0.29 ps=2.58 w=1 l=0.15
X12 x5.sky130_fd_pr__res_xhigh_po_0p35_CBQ445_2.R1_1 x5.sky130_fd_pr__res_xhigh_po_0p35_CBQ445_2.R2_0 gnd.t15 sky130_fd_pr__res_xhigh_po_0p35 l=24.92
X13 x5.Vplus.t1 x5.sky130_fd_pr__res_xhigh_po_0p35_CBQ445_0.R2_0 gnd.t58 sky130_fd_pr__res_xhigh_po_0p35 l=24.92
X14 x5.XM11.S Bit3.t0 x5.XC16.C2.t0 gnd.t68 sky130_fd_pr__nfet_01v8 ad=3.045 pd=21.58 as=3.045 ps=21.58 w=10.5 l=0.15
X15 x5.Vplus.t5 x5.XC2.C2 sky130_fd_pr__cap_mim_m3_2 l=15 w=6.4
X16 x5.Vplus.t6 x5.sky130_fd_pr__cap_mim_m3_2_SLGBQV_5.C2.t2 sky130_fd_pr__cap_mim_m3_2 l=15 w=26.15
X17 x5.XM8.S Bit2.t0 x5.XC15.C2.t0 gnd.t0 sky130_fd_pr__nfet_01v8 ad=3.045 pd=21.58 as=3.045 ps=21.58 w=10.5 l=0.15
X18 x5.sky130_fd_pr__pfet_01v8_YRFZ7K_0.S.t0 x5.XM20.G Vdd.t11 Vdd.t10 sky130_fd_pr__pfet_01v8 ad=5.568 pd=38.98 as=5.568 ps=38.98 w=19.2 l=0.15
X19 gnd.t21 x5.Phi_2 x5.sky130_fd_pr__res_xhigh_po_0p35_CBQ445_1.R1_2 gnd.t20 sky130_fd_pr__nfet_01v8 ad=3.045 pd=21.58 as=3.045 ps=21.58 w=10.5 l=0.15
X20 x3.XM3.S x3.XM1.S Vdd.t23 Vdd.t22 sky130_fd_pr__pfet_01v8 ad=0.58 pd=4.58 as=0.58 ps=4.58 w=2 l=0.75
X21 x5.sky130_fd_pr__pfet_01v8_YRFZ7K_0.S.t2 x5.sky130_fd_pr__res_xhigh_po_0p35_CBQ445_3.R2_1 gnd.t54 sky130_fd_pr__res_xhigh_po_0p35 l=24.92
X22 x5.sky130_fd_pr__cap_mim_m3_2_SLGBQV_0.C2.t0 Bit3.t1 gnd.t56 gnd.t55 sky130_fd_pr__nfet_01v8 ad=3.045 pd=21.58 as=3.045 ps=21.58 w=10.5 l=0.15
X23 gnd.t31 x2.in x2.XM13.S gnd.t30 sky130_fd_pr__nfet_01v8 ad=0.29 pd=2.58 as=0.29 ps=2.58 w=1 l=0.75
X24 Vdd.t1 x1.XM11.D.t1 x1.XM11.D.t2 Vdd.t0 sky130_fd_pr__pfet_01v8 ad=2.175 pd=15.58 as=2.175 ps=15.58 w=7.5 l=0.75
X25 x5.Vminus.t4 x5.XC5.C2 sky130_fd_pr__cap_mim_m3_2 l=15 w=26.15
X26 x4.Rst.t1 x2.XM9.S Vdd.t17 Vdd.t16 sky130_fd_pr__pfet_01v8 ad=0.58 pd=4.58 as=0.58 ps=4.58 w=2 l=0.75
X27 x2.XM5.S x2.XM3.S gnd.t76 gnd.t75 sky130_fd_pr__nfet_01v8 ad=0.29 pd=2.58 as=0.29 ps=2.58 w=1 l=0.75
X28 x2.XM9.S x2.XM7.S gnd.t41 gnd.t40 sky130_fd_pr__nfet_01v8 ad=0.29 pd=2.58 as=0.29 ps=2.58 w=1 l=0.75
X29 x1.XM4.S x5.Vminus.t5 x1.XM3.S gnd.t37 sky130_fd_pr__nfet_01v8 ad=1.0875 pd=8.08 as=1.0875 ps=8.08 w=3.75 l=0.75
X30 x5.Vminus.t6 x5.XC15.C2 sky130_fd_pr__cap_mim_m3_2 l=15 w=13
X31 Vdd.t31 x5.Phi_1.t3 x4.QB Vdd.t30 sky130_fd_pr__pfet_01v8 ad=0.435 pd=3.58 as=0.435 ps=3.58 w=1.5 l=0.15
X32 Vdd.t27 out.t4 x4.Set Vdd.t26 sky130_fd_pr__pfet_01v8 ad=0.58 pd=4.58 as=0.58 ps=4.58 w=2 l=0.75
X33 x5.sky130_fd_pr__res_xhigh_po_0p35_CBQ445_1.R1_0 x5.Vminus.t0 gnd.t63 sky130_fd_pr__res_xhigh_po_0p35 l=24.92
X34 x5.Vplus.t7 x5.XC1.C2 sky130_fd_pr__cap_mim_m3_2 l=15 w=3.11
X35 x5.Vminus.t7 x5.XC5.C2 sky130_fd_pr__cap_mim_m3_2 l=15 w=26.15
X36 Vdd.t37 rst_rc.t1 x5.XM20.G Vdd.t36 sky130_fd_pr__pfet_01v8 ad=0.58 pd=4.58 as=0.58 ps=4.58 w=2 l=0.15
X37 x5.Vplus.t8 x5.sky130_fd_pr__cap_mim_m3_2_SLGBQV_5.C2.t1 sky130_fd_pr__cap_mim_m3_2 l=15 w=26.15
X38 x2.XM1.S x2.in gnd.t29 gnd.t28 sky130_fd_pr__nfet_01v8 ad=0.29 pd=2.58 as=0.29 ps=2.58 w=1 l=0.15
X39 x1.OutN x1.XM4.S Vdd.t57 Vdd.t56 sky130_fd_pr__pfet_01v8 ad=0.435 pd=3.58 as=0.435 ps=3.58 w=1.5 l=0.15
X40 x5.Vplus.t9 x5.sky130_fd_pr__cap_mim_m3_2_SLGBQV_2.C2 sky130_fd_pr__cap_mim_m3_2 l=15 w=26.15
X41 x5.Vplus.t10 x5.sky130_fd_pr__cap_mim_m3_2_SLGBQV_5.C2.t1 sky130_fd_pr__cap_mim_m3_2 l=15 w=26.15
X42 x3.XM5.S x3.XM3.S Vdd.t7 Vdd.t6 sky130_fd_pr__pfet_01v8 ad=0.58 pd=4.58 as=0.58 ps=4.58 w=2 l=0.75
X43 x1.XM9.G x1.XM9.G gnd.t53 gnd.t52 sky130_fd_pr__nfet_01v8 ad=0.203 pd=1.98 as=0.203 ps=1.98 w=0.7 l=0.75
X44 x3.XM9.S x3.XM7.S Vdd.t33 Vdd.t32 sky130_fd_pr__pfet_01v8 ad=0.58 pd=4.58 as=0.58 ps=4.58 w=2 l=0.75
X45 x4.QB x5.Phi_1.t4 x4.XM6.S gnd.t38 sky130_fd_pr__nfet_01v8 ad=0.2175 pd=2.08 as=0.2175 ps=2.08 w=0.75 l=0.15
X46 x5.sky130_fd_pr__res_xhigh_po_0p35_CBQ445_2.R1_1 x5.sky130_fd_pr__res_xhigh_po_0p35_CBQ445_2.R2_2.t2 gnd.t84 sky130_fd_pr__res_xhigh_po_0p35 l=24.92
X47 gnd.t19 x5.Phi_1.t5 x5.sky130_fd_pr__res_xhigh_po_0p35_CBQ445_0.R2_2 gnd.t18 sky130_fd_pr__nfet_01v8 ad=3.045 pd=21.58 as=3.045 ps=21.58 w=10.5 l=0.15
X48 Vdd.t13 x5.Phi_2 x5.sky130_fd_pr__pfet_01v8_YRFZ7K_0.S.t1 Vdd.t12 sky130_fd_pr__pfet_01v8 ad=5.568 pd=38.98 as=5.568 ps=38.98 w=19.2 l=0.15
X49 x5.Vplus.t11 x5.sky130_fd_pr__cap_mim_m3_2_SLGBQV_2.C2 sky130_fd_pr__cap_mim_m3_2 l=15 w=26.15
X50 x3.XM7.S x3.XM5.S gnd.t45 gnd.t44 sky130_fd_pr__nfet_01v8 ad=0.29 pd=2.58 as=0.29 ps=2.58 w=1 l=0.75
X51 x3.XM1.S out.t5 Vdd.t51 Vdd.t50 sky130_fd_pr__pfet_01v8 ad=0.58 pd=4.58 as=0.58 ps=4.58 w=2 l=0.15
X52 x1.OutN x1.XM4.S gnd.t83 gnd.t82 sky130_fd_pr__nfet_01v8 ad=0.2175 pd=2.08 as=0.2175 ps=2.08 w=0.75 l=0.15
X53 x2.XM3.S x2.XM1.S Vdd.t47 Vdd.t46 sky130_fd_pr__pfet_01v8 ad=0.58 pd=4.58 as=0.58 ps=4.58 w=2 l=0.75
X54 x5.XC2.C2.t0 Bit1.t0 gnd.t35 gnd.t34 sky130_fd_pr__nfet_01v8 ad=3.045 pd=21.58 as=3.045 ps=21.58 w=10.5 l=0.15
X55 x5.Vminus.t8 x5.XC13.C2 sky130_fd_pr__cap_mim_m3_2 l=15 w=3.11
X56 x5.Vminus.t9 x5.sky130_fd_pr__cap_mim_m3_2_SLGBQV_8.C2.t1 sky130_fd_pr__cap_mim_m3_2 l=15 w=26.15
X57 x5.sky130_fd_pr__res_xhigh_po_0p35_CBQ445_3.R1_0 x5.sky130_fd_pr__res_xhigh_po_0p35_CBQ445_3.R2_1 gnd.t48 sky130_fd_pr__res_xhigh_po_0p35 l=24.92
X58 out.t0 x1.OutN gnd.t23 gnd.t22 sky130_fd_pr__nfet_01v8 ad=0.435 pd=3.58 as=0.435 ps=3.58 w=1.5 l=0.15
X59 x3.XM13.S x3.XM9.S x4.Set gnd.t2 sky130_fd_pr__nfet_01v8 ad=0.29 pd=2.58 as=0.29 ps=2.58 w=1 l=0.75
X60 x4.QB x4.Rst.t3 Vdd.t53 Vdd.t52 sky130_fd_pr__pfet_01v8 ad=0.435 pd=3.58 as=0.435 ps=3.58 w=1.5 l=0.15
X61 x1.XM11.S x1.XM9.G x1.XM11.D.t0 gnd.t51 sky130_fd_pr__nfet_01v8 ad=0.406 pd=3.38 as=0.406 ps=3.38 w=1.4 l=0.75
X62 x5.sky130_fd_pr__res_xhigh_po_0p35_CBQ445_0.R1_1 x5.sky130_fd_pr__res_xhigh_po_0p35_CBQ445_0.R2_2 gnd.t81 sky130_fd_pr__res_xhigh_po_0p35 l=24.92
X63 x5.Vplus.t12 x5.sky130_fd_pr__cap_mim_m3_2_SLGBQV_0.C2 sky130_fd_pr__cap_mim_m3_2 l=15 w=26.15
X64 x4.sky130_fd_pr__nfet_01v8_3GJG22_1.D x4.QB x5.Phi_1.t1 gnd.t72 sky130_fd_pr__nfet_01v8 ad=0.2175 pd=2.08 as=0.2175 ps=2.08 w=0.75 l=0.15
X65 Vdd.t21 x2.in x4.Rst.t2 Vdd.t20 sky130_fd_pr__pfet_01v8 ad=0.58 pd=4.58 as=0.58 ps=4.58 w=2 l=0.75
X66 x2.XM7.S x2.XM5.S gnd.t71 gnd.t70 sky130_fd_pr__nfet_01v8 ad=0.29 pd=2.58 as=0.29 ps=2.58 w=1 l=0.75
X67 x5.XM7.S Bit1.t1 x5.XM7.D gnd.t26 sky130_fd_pr__nfet_01v8 ad=3.045 pd=21.58 as=3.045 ps=21.58 w=10.5 l=0.15
X68 x4.XM6.S x4.Rst.t4 gnd.t47 gnd.t46 sky130_fd_pr__nfet_01v8 ad=0.2175 pd=2.08 as=0.2175 ps=2.08 w=0.75 l=0.15
X69 x5.sky130_fd_pr__res_xhigh_po_0p35_CBQ445_2.R2_2.t1 x5.XM20.G Vdd.t9 Vdd.t8 sky130_fd_pr__pfet_01v8 ad=5.568 pd=38.98 as=5.568 ps=38.98 w=19.2 l=0.15
X70 Vdd.t45 x1.XM3.D.t1 x1.XM3.D.t2 Vdd.t44 sky130_fd_pr__pfet_01v8 ad=2.175 pd=15.58 as=2.175 ps=15.58 w=7.5 l=0.75
X71 x2.XM5.S x2.XM3.S Vdd.t49 Vdd.t48 sky130_fd_pr__pfet_01v8 ad=0.58 pd=4.58 as=0.58 ps=4.58 w=2 l=0.75
X72 x5.sky130_fd_pr__res_xhigh_po_0p35_CBQ445_3.R1_0 x5.Vminus.t1 gnd.t67 sky130_fd_pr__res_xhigh_po_0p35 l=24.92
X73 x5.XC3.C2.t0 Bit2.t1 gnd.t17 gnd.t16 sky130_fd_pr__nfet_01v8 ad=3.045 pd=21.58 as=3.045 ps=21.58 w=10.5 l=0.15
X74 x2.XM9.S x2.XM7.S Vdd.t25 Vdd.t24 sky130_fd_pr__pfet_01v8 ad=0.58 pd=4.58 as=0.58 ps=4.58 w=2 l=0.75
X75 x5.XM15.S Bit0.t0 x5.XM15.D gnd.t1 sky130_fd_pr__nfet_01v8 ad=3.045 pd=21.58 as=3.045 ps=21.58 w=10.5 l=0.15
X76 x5.Vminus.t10 x5.XC14.C2 sky130_fd_pr__cap_mim_m3_2 l=15 w=6.4
X77 x5.Vminus.t11 x5.sky130_fd_pr__cap_mim_m3_2_SLGBQV_8.C2.t0 sky130_fd_pr__cap_mim_m3_2 l=15 w=26.15
X78 x1.sky130_fd_pr__res_xhigh_po_0p35_T68YWU_0.R1_0 x5.Vplus.t3 gnd.t36 sky130_fd_pr__res_xhigh_po_0p35 l=28.81
X79 x5.sky130_fd_pr__res_xhigh_po_0p35_CBQ445_0.R1_1 x5.sky130_fd_pr__res_xhigh_po_0p35_CBQ445_0.R2_0 gnd.t14 sky130_fd_pr__res_xhigh_po_0p35 l=24.92
X80 gnd.t11 rst_rc.t2 x5.Vminus.t2 gnd.t10 sky130_fd_pr__nfet_01v8 ad=3.045 pd=21.58 as=3.045 ps=21.58 w=10.5 l=0.15
X81 x2.XM1.S x2.in Vdd.t19 Vdd.t18 sky130_fd_pr__pfet_01v8 ad=0.58 pd=4.58 as=0.58 ps=4.58 w=2 l=0.15
X82 x3.XM7.S x3.XM5.S Vdd.t29 Vdd.t28 sky130_fd_pr__pfet_01v8 ad=0.58 pd=4.58 as=0.58 ps=4.58 w=2 l=0.75
X83 Vdd.t55 x4.Set x5.Phi_1.t2 Vdd.t54 sky130_fd_pr__pfet_01v8 ad=0.435 pd=3.58 as=0.435 ps=3.58 w=1.5 l=0.15
X84 x1.sky130_fd_pr__res_xhigh_po_0p35_T68YWU_0.R1_0 out.t2 gnd.t36 sky130_fd_pr__res_xhigh_po_0p35 l=28.81
X85 x2.XM13.S x2.XM9.S x4.Rst.t0 gnd.t27 sky130_fd_pr__nfet_01v8 ad=0.29 pd=2.58 as=0.29 ps=2.58 w=1 l=0.75
X86 x5.Vplus.t13 x5.sky130_fd_pr__cap_mim_m3_2_SLGBQV_5.C2.t0 sky130_fd_pr__cap_mim_m3_2 l=15 w=26.15
X87 x5.sky130_fd_pr__res_xhigh_po_0p35_CBQ445_1.R1_2 x5.sky130_fd_pr__res_xhigh_po_0p35_CBQ445_1.R2_1 gnd.t77 sky130_fd_pr__res_xhigh_po_0p35 l=24.92
X88 x5.Vplus.t0 x5.sky130_fd_pr__res_xhigh_po_0p35_CBQ445_2.R2_0 gnd.t57 sky130_fd_pr__res_xhigh_po_0p35 l=24.92
X89 x1.XM9.G x1.XM11.D.t3 Vdd.t35 Vdd.t34 sky130_fd_pr__pfet_01v8 ad=2.175 pd=15.58 as=2.175 ps=15.58 w=7.5 l=0.75
X90 x3.XM3.S x3.XM1.S gnd.t33 gnd.t32 sky130_fd_pr__nfet_01v8 ad=0.29 pd=2.58 as=0.29 ps=2.58 w=1 l=0.75
X91 x5.Vminus.t12 x5.sky130_fd_pr__cap_mim_m3_2_SLGBQV_8.C2.t1 sky130_fd_pr__cap_mim_m3_2 l=15 w=26.15
X92 x5.XM12.S Bit4.t1 x5.XC5.C2.t0 gnd.t3 sky130_fd_pr__nfet_01v8 ad=3.045 pd=21.58 as=3.045 ps=21.58 w=10.5 l=0.15
X93 gnd.t50 x1.XM9.G x1.XM3.S gnd.t49 sky130_fd_pr__nfet_01v8 ad=2.03 pd=14.58 as=2.03 ps=14.58 w=7 l=0.75
X94 x1.XM4.S x1.XM3.D.t3 Vdd.t43 Vdd.t42 sky130_fd_pr__pfet_01v8 ad=2.175 pd=15.58 as=2.175 ps=15.58 w=7.5 l=0.75
X95 x4.Set x3.XM9.S Vdd.t5 Vdd.t4 sky130_fd_pr__pfet_01v8 ad=0.58 pd=4.58 as=0.58 ps=4.58 w=2 l=0.75
X96 x5.XM1.S Bit0.t1 gnd.t13 gnd.t12 sky130_fd_pr__nfet_01v8 ad=3.045 pd=21.58 as=3.045 ps=21.58 w=10.5 l=0.15
X97 x5.sky130_fd_pr__cap_mim_m3_2_SLGBQV_5.C2.t3 Bit5.t1 gnd.t43 gnd.t42 sky130_fd_pr__nfet_01v8 ad=3.045 pd=21.58 as=3.045 ps=21.58 w=10.5 l=0.15
X98 x5.Vplus.t14 x5.XC3.C2 sky130_fd_pr__cap_mim_m3_2 l=15 w=13
X99 x5.Vminus.t13 x5.sky130_fd_pr__cap_mim_m3_2_SLGBQV_8.C2.t0 sky130_fd_pr__cap_mim_m3_2 l=15 w=26.15
X100 x5.sky130_fd_pr__res_xhigh_po_0p35_CBQ445_1.R1_0 x5.sky130_fd_pr__res_xhigh_po_0p35_CBQ445_1.R2_1 gnd.t39 sky130_fd_pr__res_xhigh_po_0p35 l=24.92
X101 x1.XM11.S gnd.t25 gnd.t24 sky130_fd_pr__res_xhigh_po_0p35 l=17.3
X102 Vdd.t3 x5.Phi_1.t6 x5.sky130_fd_pr__res_xhigh_po_0p35_CBQ445_2.R2_2.t0 Vdd.t2 sky130_fd_pr__pfet_01v8 ad=5.568 pd=38.98 as=5.568 ps=38.98 w=19.2 l=0.15
X103 x5.XM20.G rst_rc.t3 gnd.t9 gnd.t8 sky130_fd_pr__nfet_01v8 ad=0.29 pd=2.58 as=0.29 ps=2.58 w=1 l=0.15
X104 gnd.t60 out.t6 x3.XM13.S gnd.t59 sky130_fd_pr__nfet_01v8 ad=0.29 pd=2.58 as=0.29 ps=2.58 w=1 l=0.75
X105 gnd.t80 x4.Set x4.sky130_fd_pr__nfet_01v8_3GJG22_1.D gnd.t79 sky130_fd_pr__nfet_01v8 ad=0.2175 pd=2.08 as=0.2175 ps=2.08 w=0.75 l=0.15
R0 Bit4 Bit4.t0 1898.45
R1 Bit4 Bit4.t1 1898.45
R2 Bit4.n0 Bit4 19.2959
R3 Bit4.n0 Bit4 0.123
R4 Bit4.n0 Bit4 0.120215
R5 Bit4 Bit4.n0 0.0534762
R6 gnd.n323 gnd.n322 2.64119e+06
R7 gnd.n324 gnd.n323 1.01824e+06
R8 gnd.n449 gnd.n424 814936
R9 gnd.n515 gnd.n441 32546.6
R10 gnd.n523 gnd.n436 20997.9
R11 gnd.n523 gnd.n437 20997.9
R12 gnd.n438 gnd.n436 20997.9
R13 gnd.n438 gnd.n437 20997.9
R14 gnd.n309 gnd.n218 19224.9
R15 gnd.n309 gnd.n219 19224.9
R16 gnd.n310 gnd.n218 19224.9
R17 gnd.n310 gnd.n219 19224.9
R18 gnd.n256 gnd.n240 19224.9
R19 gnd.n256 gnd.n244 19224.9
R20 gnd.n257 gnd.n240 19224.9
R21 gnd.n257 gnd.n244 19224.9
R22 gnd.n285 gnd.n232 19224.9
R23 gnd.n281 gnd.n232 19224.9
R24 gnd.n285 gnd.n282 19224.9
R25 gnd.n282 gnd.n281 19224.9
R26 gnd.n321 gnd.n205 19224.9
R27 gnd.n248 gnd.n205 19224.9
R28 gnd.n321 gnd.n206 19224.9
R29 gnd.n248 gnd.n206 19224.9
R30 gnd.n449 gnd.n441 17251.2
R31 gnd.n499 gnd.n487 13847.9
R32 gnd.n506 gnd.n487 13847.9
R33 gnd.n506 gnd.n486 13847.9
R34 gnd.n499 gnd.n486 13847.9
R35 gnd.n468 gnd.n450 10649.3
R36 gnd.n568 gnd.n44 8794.21
R37 gnd.n323 gnd.n203 8241.88
R38 gnd.n450 gnd.n449 8209.22
R39 gnd.n559 gnd.n52 7630.85
R40 gnd.n559 gnd.n53 7630.85
R41 gnd.n561 gnd.n53 7630.85
R42 gnd.n561 gnd.n52 7630.85
R43 gnd.n385 gnd.n155 7630.85
R44 gnd.n382 gnd.n155 7630.85
R45 gnd.n385 gnd.n157 7630.85
R46 gnd.n382 gnd.n157 7630.85
R47 gnd.n393 gnd.n145 7630.85
R48 gnd.n393 gnd.n146 7630.85
R49 gnd.n395 gnd.n145 7630.85
R50 gnd.n395 gnd.n146 7630.85
R51 gnd.n161 gnd.n160 7630.85
R52 gnd.n376 gnd.n161 7630.85
R53 gnd.n377 gnd.n160 7630.85
R54 gnd.n377 gnd.n376 7630.85
R55 gnd.n335 gnd.n191 7630.85
R56 gnd.n335 gnd.n194 7630.85
R57 gnd.n337 gnd.n191 7630.85
R58 gnd.n337 gnd.n194 7630.85
R59 gnd.n306 gnd.n297 7630.85
R60 gnd.n298 gnd.n297 7630.85
R61 gnd.n306 gnd.n305 7630.85
R62 gnd.n305 gnd.n298 7630.85
R63 gnd.n289 gnd.n221 7630.85
R64 gnd.n224 gnd.n221 7630.85
R65 gnd.n289 gnd.n225 7630.85
R66 gnd.n225 gnd.n224 7630.85
R67 gnd.n234 gnd.n214 7630.85
R68 gnd.n312 gnd.n214 7630.85
R69 gnd.n234 gnd.n215 7630.85
R70 gnd.n312 gnd.n215 7630.85
R71 gnd.n352 gnd.n151 7630.85
R72 gnd.n388 gnd.n151 7630.85
R73 gnd.n388 gnd.n152 7630.85
R74 gnd.n352 gnd.n152 7630.85
R75 gnd.n345 gnd.n183 7630.85
R76 gnd.n345 gnd.n184 7630.85
R77 gnd.n347 gnd.n183 7630.85
R78 gnd.n347 gnd.n184 7630.85
R79 gnd.n326 gnd.n196 7630.85
R80 gnd.n331 gnd.n196 7630.85
R81 gnd.n326 gnd.n197 7630.85
R82 gnd.n331 gnd.n197 7630.85
R83 gnd.n228 gnd.n227 7630.85
R84 gnd.n227 gnd.n212 7630.85
R85 gnd.n287 gnd.n228 7630.85
R86 gnd.n287 gnd.n212 7630.85
R87 gnd.n245 gnd.n210 7630.85
R88 gnd.n315 gnd.n210 7630.85
R89 gnd.n245 gnd.n211 7630.85
R90 gnd.n315 gnd.n211 7630.85
R91 gnd.n549 gnd.n399 7630.85
R92 gnd.n400 gnd.n399 7630.85
R93 gnd.n549 gnd.n548 7630.85
R94 gnd.n548 gnd.n400 7630.85
R95 gnd.n545 gnd.n47 7630.85
R96 gnd.n545 gnd.n48 7630.85
R97 gnd.n566 gnd.n48 7630.85
R98 gnd.n566 gnd.n47 7630.85
R99 gnd.n538 gnd.n404 7630.85
R100 gnd.n538 gnd.n405 7630.85
R101 gnd.n541 gnd.n405 7630.85
R102 gnd.n541 gnd.n404 7630.85
R103 gnd.n500 gnd.n441 7592.82
R104 gnd.n535 gnd.n413 6130.18
R105 gnd.n421 gnd.n413 6130.18
R106 gnd.n535 gnd.n414 6130.18
R107 gnd.n421 gnd.n414 6130.18
R108 gnd.n530 gnd.n419 4247.09
R109 gnd.n531 gnd.n419 4247.09
R110 gnd.n526 gnd.n432 4247.09
R111 gnd.n525 gnd.n432 4247.09
R112 gnd.n203 gnd.n44 3850.49
R113 gnd.n429 gnd.n426 2983.97
R114 gnd.n429 gnd.n420 2983.97
R115 gnd.n513 gnd.n442 2885.47
R116 gnd.n443 gnd.n442 2885.47
R117 gnd.n513 gnd.n511 2885.47
R118 gnd.n511 gnd.n443 2885.47
R119 gnd.n521 gnd.n439 2479.88
R120 gnd.n517 gnd.n439 2479.88
R121 gnd.n521 gnd.n518 2479.88
R122 gnd.n518 gnd.n517 2479.88
R123 gnd.n85 gnd.n82 2474.09
R124 gnd.n84 gnd.n82 2474.09
R125 gnd.n596 gnd.n5 2474.09
R126 gnd.n597 gnd.n5 2474.09
R127 gnd.n461 gnd.n451 2416.15
R128 gnd.n466 gnd.n451 2416.15
R129 gnd.n466 gnd.n452 2416.15
R130 gnd.n461 gnd.n452 2416.15
R131 gnd.n255 gnd.n254 2126.44
R132 gnd.n255 gnd.n236 2126.44
R133 gnd.n254 gnd.n251 2126.44
R134 gnd.n251 gnd.n236 2126.44
R135 gnd.n117 gnd.n109 2126.44
R136 gnd.n118 gnd.n109 2126.44
R137 gnd.n570 gnd.n41 2126.44
R138 gnd.n571 gnd.n570 2126.44
R139 gnd.n368 gnd.n168 1981.59
R140 gnd.n369 gnd.n168 1981.59
R141 gnd.n373 gnd.n163 1981.59
R142 gnd.n373 gnd.n164 1981.59
R143 gnd.n343 gnd.n185 1981.59
R144 gnd.n343 gnd.n186 1981.59
R145 gnd.n358 gnd.n356 1981.59
R146 gnd.n356 gnd.n354 1981.59
R147 gnd.n472 gnd.n447 1981.59
R148 gnd.n472 gnd.n471 1981.59
R149 gnd.n471 gnd.n448 1981.59
R150 gnd.n448 gnd.n447 1981.59
R151 gnd.n459 gnd.n450 1731.08
R152 gnd.n370 gnd.n165 1363.2
R153 gnd.n530 gnd.n426 1263.12
R154 gnd.n526 gnd.n426 1263.12
R155 gnd.n531 gnd.n420 1263.12
R156 gnd.n525 gnd.n420 1263.12
R157 gnd.n85 gnd.n80 1263.12
R158 gnd.n91 gnd.n80 1263.12
R159 gnd.n91 gnd.n72 1263.12
R160 gnd.n95 gnd.n72 1263.12
R161 gnd.n95 gnd.n67 1263.12
R162 gnd.n126 gnd.n67 1263.12
R163 gnd.n126 gnd.n68 1263.12
R164 gnd.n122 gnd.n68 1263.12
R165 gnd.n122 gnd.n101 1263.12
R166 gnd.n113 gnd.n101 1263.12
R167 gnd.n113 gnd.n112 1263.12
R168 gnd.n84 gnd.n78 1263.12
R169 gnd.n92 gnd.n78 1263.12
R170 gnd.n92 gnd.n74 1263.12
R171 gnd.n94 gnd.n74 1263.12
R172 gnd.n94 gnd.n63 1263.12
R173 gnd.n127 gnd.n63 1263.12
R174 gnd.n127 gnd.n64 1263.12
R175 gnd.n121 gnd.n64 1263.12
R176 gnd.n121 gnd.n103 1263.12
R177 gnd gnd.n103 1263.12
R178 gnd.n108 gnd 1263.12
R179 gnd.n596 gnd.n9 1263.12
R180 gnd.n592 gnd.n9 1263.12
R181 gnd.n592 gnd.n13 1263.12
R182 gnd.n588 gnd.n13 1263.12
R183 gnd.n588 gnd.n21 1263.12
R184 gnd.n584 gnd.n21 1263.12
R185 gnd.n584 gnd.n25 1263.12
R186 gnd.n580 gnd.n25 1263.12
R187 gnd.n580 gnd.n34 1263.12
R188 gnd.n576 gnd.n34 1263.12
R189 gnd.n576 gnd.n38 1263.12
R190 gnd.n597 gnd.n6 1263.12
R191 gnd.n591 gnd.n6 1263.12
R192 gnd.n591 gnd.n15 1263.12
R193 gnd.n589 gnd.n15 1263.12
R194 gnd.n589 gnd.n19 1263.12
R195 gnd.n583 gnd.n19 1263.12
R196 gnd.n583 gnd.n27 1263.12
R197 gnd.n581 gnd.n27 1263.12
R198 gnd.n581 gnd.n32 1263.12
R199 gnd gnd.n32 1263.12
R200 gnd.n39 gnd 1263.12
R201 gnd.n574 gnd.n38 1210.97
R202 gnd.n574 gnd.n39 1210.97
R203 gnd.n35 gnd.n34 1210.97
R204 gnd.n35 gnd.n32 1210.97
R205 gnd.n29 gnd.n25 1210.97
R206 gnd.n29 gnd.n27 1210.97
R207 gnd.n22 gnd.n21 1210.97
R208 gnd.n22 gnd.n19 1210.97
R209 gnd.n16 gnd.n13 1210.97
R210 gnd.n16 gnd.n15 1210.97
R211 gnd.n112 gnd.n111 1210.97
R212 gnd.n111 gnd.n108 1210.97
R213 gnd.n104 gnd.n101 1210.97
R214 gnd.n104 gnd.n103 1210.97
R215 gnd.n98 gnd.n68 1210.97
R216 gnd.n98 gnd.n64 1210.97
R217 gnd.n69 gnd.n67 1210.97
R218 gnd.n69 gnd.n63 1210.97
R219 gnd.n75 gnd.n72 1210.97
R220 gnd.n75 gnd.n74 1210.97
R221 gnd.n87 gnd.n80 1210.97
R222 gnd.n87 gnd.n78 1210.97
R223 gnd.n10 gnd.n9 1210.97
R224 gnd.n10 gnd.n6 1210.97
R225 gnd.n504 gnd.n501 1096.08
R226 gnd.n173 gnd.n172 1066.12
R227 gnd.n172 gnd.n169 1066.12
R228 gnd.n361 gnd.n176 1066.12
R229 gnd.n361 gnd.n177 1066.12
R230 gnd.n349 gnd.n181 1010.2
R231 gnd.n203 gnd.n7 961.04
R232 gnd.n368 gnd.n173 915.471
R233 gnd.n173 gnd.n163 915.471
R234 gnd.n369 gnd.n169 915.471
R235 gnd.n169 gnd.n164 915.471
R236 gnd.n185 gnd.n176 915.471
R237 gnd.n358 gnd.n176 915.471
R238 gnd.n186 gnd.n177 915.471
R239 gnd.n354 gnd.n177 915.471
R240 gnd.n117 gnd.n112 915.471
R241 gnd.n118 gnd.n108 915.471
R242 gnd.n41 gnd.n38 915.471
R243 gnd.n571 gnd.n39 915.471
R244 gnd.t30 gnd.n83 687.106
R245 gnd.t30 gnd.n79 687.106
R246 gnd.t27 gnd.n79 687.106
R247 gnd.t27 gnd.n73 687.106
R248 gnd.t40 gnd.n73 687.106
R249 gnd.t40 gnd.n65 687.106
R250 gnd.t70 gnd.n65 687.106
R251 gnd.t70 gnd.n66 687.106
R252 gnd.t75 gnd.n66 687.106
R253 gnd.t75 gnd.n102 687.106
R254 gnd.t73 gnd.n102 687.106
R255 gnd.t73 gnd.n110 687.106
R256 gnd.n501 gnd.n500 667.702
R257 gnd gnd.n40 594.845
R258 gnd.n408 gnd.n407 564.33
R259 gnd.n340 gnd.n339 551.201
R260 gnd.n339 gnd.n338 547.529
R261 gnd.n408 gnd.n406 513.83
R262 gnd.t28 gnd.n110 497.995
R263 gnd.t28 gnd.n45 497.995
R264 gnd.n384 gnd.n383 495.812
R265 gnd gnd.n384 495.812
R266 gnd.n302 gnd.n301 495.812
R267 gnd.n392 gnd.n143 495.812
R268 gnd.n392 gnd.n391 492.048
R269 gnd.n338 gnd.n190 490.918
R270 gnd.n199 gnd.n198 490.918
R271 gnd.n390 gnd.n149 489.788
R272 gnd.n563 gnd.n562 489.788
R273 gnd.n562 gnd.n51 489.788
R274 gnd.n278 gnd.n277 471.587
R275 gnd gnd.n181 466.973
R276 gnd.n568 gnd.n567 465.348
R277 gnd.n493 gnd.n492 451.921
R278 gnd.n179 gnd.n149 451.228
R279 gnd.n378 gnd.n159 443.303
R280 gnd.n539 gnd 443.116
R281 gnd.n339 gnd.n159 443.11
R282 gnd.n564 gnd.n563 439.307
R283 gnd.n540 gnd.n539 437.019
R284 gnd.n302 gnd.n296 436.329
R285 gnd.n407 gnd.n398 436.329
R286 gnd.n200 gnd.n199 436.329
R287 gnd.n565 gnd.n564 436.329
R288 gnd.n277 gnd.n233 411.908
R289 gnd.n295 gnd.n217 365.168
R290 gnd gnd.n235 322.204
R291 gnd.n292 gnd.n221 308.978
R292 gnd.n275 gnd.n217 299.521
R293 gnd.n500 gnd.n499 295.63
R294 gnd gnd.n118 292.5
R295 gnd.n118 gnd.t28 292.5
R296 gnd.n117 gnd.n116 292.5
R297 gnd.t28 gnd.n117 292.5
R298 gnd.n499 gnd.n498 292.5
R299 gnd.n453 gnd.n447 292.5
R300 gnd.t82 gnd.n447 292.5
R301 gnd gnd.n506 292.5
R302 gnd.n506 gnd.t24 292.5
R303 gnd gnd.n538 292.5
R304 gnd.n538 gnd.n537 292.5
R305 gnd.n409 gnd.n400 292.5
R306 gnd.n544 gnd.n400 292.5
R307 gnd.n541 gnd.n540 292.5
R308 gnd.n542 gnd.n541 292.5
R309 gnd gnd.n549 292.5
R310 gnd.n549 gnd.n46 292.5
R311 gnd.n211 gnd 292.5
R312 gnd.t18 gnd.n211 292.5
R313 gnd.n230 gnd.n210 292.5
R314 gnd.t18 gnd.n210 292.5
R315 gnd.n287 gnd 292.5
R316 gnd.t10 gnd.n287 292.5
R317 gnd.n274 gnd.n227 292.5
R318 gnd.t10 gnd.n227 292.5
R319 gnd.n331 gnd.n330 292.5
R320 gnd.n332 gnd.n331 292.5
R321 gnd gnd.n326 292.5
R322 gnd.n326 gnd.n325 292.5
R323 gnd.n184 gnd.n180 292.5
R324 gnd.n184 gnd.n178 292.5
R325 gnd.n183 gnd 292.5
R326 gnd.n334 gnd.n183 292.5
R327 gnd.n352 gnd 292.5
R328 gnd.n353 gnd.n352 292.5
R329 gnd.n251 gnd 292.5
R330 gnd.t8 gnd.n251 292.5
R331 gnd.n255 gnd.n238 292.5
R332 gnd.t8 gnd.n255 292.5
R333 gnd gnd.n215 292.5
R334 gnd.t10 gnd.n215 292.5
R335 gnd.n242 gnd.n214 292.5
R336 gnd.t10 gnd.n214 292.5
R337 gnd gnd.n225 292.5
R338 gnd.n225 gnd.t20 292.5
R339 gnd.n221 gnd.t20 292.5
R340 gnd.n301 gnd.n298 292.5
R341 gnd.n298 gnd.n195 292.5
R342 gnd gnd.n306 292.5
R343 gnd.n306 gnd.n201 292.5
R344 gnd.n194 gnd.n192 292.5
R345 gnd.n194 gnd.n193 292.5
R346 gnd gnd.n191 292.5
R347 gnd.n333 gnd.n191 292.5
R348 gnd gnd.n161 292.5
R349 gnd.n359 gnd.n161 292.5
R350 gnd.n354 gnd 292.5
R351 gnd.t72 gnd.n354 292.5
R352 gnd gnd.n186 292.5
R353 gnd.n186 gnd.t79 292.5
R354 gnd.n187 gnd.n185 292.5
R355 gnd.n185 gnd.t79 292.5
R356 gnd.n358 gnd.n357 292.5
R357 gnd.t72 gnd.n358 292.5
R358 gnd gnd.n164 292.5
R359 gnd.t46 gnd.n164 292.5
R360 gnd gnd.n369 292.5
R361 gnd.n369 gnd.t38 292.5
R362 gnd.n368 gnd.n367 292.5
R363 gnd.t38 gnd.n368 292.5
R364 gnd.n365 gnd.n163 292.5
R365 gnd.t46 gnd.n163 292.5
R366 gnd.n389 gnd.n388 292.5
R367 gnd.n388 gnd.n387 292.5
R368 gnd.n146 gnd.n143 292.5
R369 gnd.n202 gnd.n146 292.5
R370 gnd gnd.n145 292.5
R371 gnd.n154 gnd.n145 292.5
R372 gnd.n378 gnd.n377 292.5
R373 gnd.n377 gnd.n153 292.5
R374 gnd.n383 gnd.n382 292.5
R375 gnd.n382 gnd.n147 292.5
R376 gnd.n385 gnd 292.5
R377 gnd.n386 gnd.n385 292.5
R378 gnd.n42 gnd.n41 292.5
R379 gnd.n41 gnd.t61 292.5
R380 gnd gnd.n571 292.5
R381 gnd.n571 gnd.t61 292.5
R382 gnd.n566 gnd 292.5
R383 gnd.n567 gnd.n566 292.5
R384 gnd.n545 gnd.n50 292.5
R385 gnd.n546 gnd.n545 292.5
R386 gnd.n52 gnd 292.5
R387 gnd.n543 gnd.n52 292.5
R388 gnd.n58 gnd.n53 292.5
R389 gnd.n470 gnd.n53 292.5
R390 gnd.n464 gnd.n451 292.5
R391 gnd.n451 gnd.t22 292.5
R392 gnd.n471 gnd 292.5
R393 gnd.n471 gnd.t82 292.5
R394 gnd gnd.n452 292.5
R395 gnd.n452 gnd.t22 292.5
R396 gnd.n303 gnd.n195 287.224
R397 gnd.n311 gnd 284.077
R398 gnd.n484 gnd.n59 268.947
R399 gnd.t26 gnd.n334 267.373
R400 gnd.n162 gnd.n153 261.858
R401 gnd.n394 gnd.n147 257.966
R402 gnd.t68 gnd.n154 250.421
R403 gnd.n325 gnd.n324 241.15
R404 gnd.n346 gnd.n344 227.917
R405 gnd.n379 gnd.n158 219.31
R406 gnd.n503 gnd.n502 217.344
R407 gnd.n528 gnd.n430 193.882
R408 gnd.n430 gnd.n418 193.882
R409 gnd.n349 gnd.n348 187.218
R410 gnd.n320 gnd 186
R411 gnd.n320 gnd.n207 182.46
R412 gnd.n547 gnd.n546 173.017
R413 gnd.n498 gnd.n493 170.585
R414 gnd.n83 gnd.n44 167.049
R415 gnd.n568 gnd.n45 167.049
R416 gnd.t3 gnd.n46 166.964
R417 gnd.n505 gnd.n504 162.464
R418 gnd.n86 gnd.n81 160.754
R419 gnd.n595 gnd.n3 160.754
R420 gnd.n489 gnd.n488 157.725
R421 gnd.n275 gnd 157.44
R422 gnd.n542 gnd.n403 154.661
R423 gnd.n239 gnd.n222 153.988
R424 gnd.n464 gnd.n463 153.601
R425 gnd.n247 gnd.n246 150.474
R426 gnd.n383 gnd.n2 148.707
R427 gnd gnd.n239 147.625
R428 gnd.n301 gnd.n300 146.447
R429 gnd.n397 gnd.n143 146.447
R430 gnd.n356 gnd.n174 146.256
R431 gnd.n259 gnd.n236 146.254
R432 gnd.n88 gnd.n87 146.25
R433 gnd.n87 gnd.n79 146.25
R434 gnd.n76 gnd.n75 146.25
R435 gnd.n75 gnd.n73 146.25
R436 gnd.n70 gnd.n69 146.25
R437 gnd.n69 gnd.n65 146.25
R438 gnd.n99 gnd.n98 146.25
R439 gnd.n98 gnd.n66 146.25
R440 gnd.n105 gnd.n104 146.25
R441 gnd.n104 gnd.n102 146.25
R442 gnd.n111 gnd.n106 146.25
R443 gnd.n111 gnd.n110 146.25
R444 gnd.n109 gnd.n107 146.25
R445 gnd.n109 gnd.n45 146.25
R446 gnd.n121 gnd 146.25
R447 gnd.t75 gnd.n121 146.25
R448 gnd gnd.n127 146.25
R449 gnd.n127 gnd.t70 146.25
R450 gnd.n94 gnd 146.25
R451 gnd.t40 gnd.n94 146.25
R452 gnd gnd.n92 146.25
R453 gnd.n92 gnd.t27 146.25
R454 gnd.n84 gnd 146.25
R455 gnd.t30 gnd.n84 146.25
R456 gnd.n82 gnd.n81 146.25
R457 gnd.n83 gnd.n82 146.25
R458 gnd.n86 gnd.n85 146.25
R459 gnd.n85 gnd.t30 146.25
R460 gnd.n91 gnd.n90 146.25
R461 gnd.t27 gnd.n91 146.25
R462 gnd.n96 gnd.n95 146.25
R463 gnd.n95 gnd.t40 146.25
R464 gnd.n126 gnd.n125 146.25
R465 gnd.t70 gnd.n126 146.25
R466 gnd.n123 gnd.n122 146.25
R467 gnd.n122 gnd.t75 146.25
R468 gnd.n114 gnd.n113 146.25
R469 gnd.n113 gnd.t73 146.25
R470 gnd.n484 gnd.n437 146.25
R471 gnd.n504 gnd.n437 146.25
R472 gnd gnd.n414 146.25
R473 gnd.n414 gnd.t49 146.25
R474 gnd.n445 gnd.n413 146.25
R475 gnd.n413 gnd.t49 146.25
R476 gnd.n525 gnd 146.25
R477 gnd.t64 gnd.n525 146.25
R478 gnd gnd.n531 146.25
R479 gnd.n531 gnd.t37 146.25
R480 gnd.n530 gnd.n529 146.25
R481 gnd.t37 gnd.n530 146.25
R482 gnd.n527 gnd.n526 146.25
R483 gnd.n526 gnd.t64 146.25
R484 gnd.n517 gnd.n440 146.25
R485 gnd.n517 gnd.n516 146.25
R486 gnd gnd.n518 146.25
R487 gnd.n518 gnd.t52 146.25
R488 gnd.n521 gnd.n520 146.25
R489 gnd.n522 gnd.n521 146.25
R490 gnd.n488 gnd.n439 146.25
R491 gnd.n439 gnd.t52 146.25
R492 gnd.n511 gnd 146.25
R493 gnd.n511 gnd.t51 146.25
R494 gnd.n490 gnd.n442 146.25
R495 gnd.n442 gnd.t51 146.25
R496 gnd.n250 gnd.n236 146.25
R497 gnd.n254 gnd.n252 146.25
R498 gnd.n254 gnd.n253 146.25
R499 gnd.n362 gnd.n361 146.25
R500 gnd.n361 gnd.n360 146.25
R501 gnd.n356 gnd.n355 146.25
R502 gnd.n343 gnd.n342 146.25
R503 gnd.n344 gnd.n343 146.25
R504 gnd.n172 gnd.n166 146.25
R505 gnd.n172 gnd.n171 146.25
R506 gnd.n373 gnd.n372 146.25
R507 gnd.n374 gnd.n373 146.25
R508 gnd.n364 gnd.n168 146.25
R509 gnd.n170 gnd.n168 146.25
R510 gnd.n17 gnd.n16 146.25
R511 gnd.n16 gnd.n14 146.25
R512 gnd.n23 gnd.n22 146.25
R513 gnd.n22 gnd.n20 146.25
R514 gnd.n30 gnd.n29 146.25
R515 gnd.n29 gnd.n26 146.25
R516 gnd.n36 gnd.n35 146.25
R517 gnd.n35 gnd.n33 146.25
R518 gnd.n574 gnd.n573 146.25
R519 gnd.n575 gnd.n574 146.25
R520 gnd.n11 gnd.n10 146.25
R521 gnd.n10 gnd.n8 146.25
R522 gnd.n5 gnd.n3 146.25
R523 gnd.n7 gnd.n5 146.25
R524 gnd.n596 gnd.n595 146.25
R525 gnd.t59 gnd.n596 146.25
R526 gnd.n593 gnd.n592 146.25
R527 gnd.n592 gnd.t2 146.25
R528 gnd.n588 gnd.n587 146.25
R529 gnd.t65 gnd.n588 146.25
R530 gnd.n585 gnd.n584 146.25
R531 gnd.n584 gnd.t44 146.25
R532 gnd.n580 gnd.n579 146.25
R533 gnd.t6 gnd.n580 146.25
R534 gnd.n577 gnd.n576 146.25
R535 gnd.n576 gnd.t32 146.25
R536 gnd.n570 gnd.n43 146.25
R537 gnd.n570 gnd.n569 146.25
R538 gnd gnd.n581 146.25
R539 gnd.n581 gnd.t6 146.25
R540 gnd.n583 gnd 146.25
R541 gnd.t44 gnd.n583 146.25
R542 gnd gnd.n589 146.25
R543 gnd.n589 gnd.t65 146.25
R544 gnd.n591 gnd 146.25
R545 gnd.t2 gnd.n591 146.25
R546 gnd gnd.n597 146.25
R547 gnd.n597 gnd.t59 146.25
R548 gnd gnd.n436 146.25
R549 gnd.n436 gnd.n403 146.25
R550 gnd.n454 gnd.n448 146.25
R551 gnd.n469 gnd.n448 146.25
R552 gnd.n473 gnd.n472 146.25
R553 gnd.n472 gnd.n412 146.25
R554 gnd.n116 gnd.n107 138.166
R555 gnd.n43 gnd.n42 138.166
R556 gnd.n296 gnd.n295 120.537
R557 gnd.n278 gnd.n200 117.648
R558 gnd gnd.t53 117.358
R559 gnd gnd.t83 115.701
R560 gnd gnd.t80 115.701
R561 gnd gnd.t47 115.701
R562 gnd.n550 gnd 98.9841
R563 gnd.n461 gnd.n460 98.0199
R564 gnd.n462 gnd.n457 97.5064
R565 gnd.n466 gnd.n465 97.5035
R566 gnd.n491 gnd.n443 97.5005
R567 gnd.n502 gnd.n443 97.5005
R568 gnd.n513 gnd.n512 97.5005
R569 gnd.n514 gnd.n513 97.5005
R570 gnd.n462 gnd.n461 97.5005
R571 gnd.n467 gnd.n466 97.5005
R572 gnd.n355 gnd.n170 93.1274
R573 gnd gnd.n81 87.5132
R574 gnd gnd.n107 85.0829
R575 gnd gnd.n206 83.5719
R576 gnd.t15 gnd.n206 83.5719
R577 gnd.n237 gnd.n205 83.5719
R578 gnd.t15 gnd.n205 83.5719
R579 gnd.n282 gnd 83.5719
R580 gnd.n282 gnd.t14 83.5719
R581 gnd.n276 gnd.n232 83.5719
R582 gnd.n232 gnd.t14 83.5719
R583 gnd gnd.n257 83.5719
R584 gnd.n257 gnd.t48 83.5719
R585 gnd.n256 gnd.n222 83.5719
R586 gnd.t48 gnd.n256 83.5719
R587 gnd gnd.n310 83.5719
R588 gnd.n310 gnd.t39 83.5719
R589 gnd.n309 gnd.n308 83.5719
R590 gnd.t39 gnd.n309 83.5719
R591 gnd.n529 gnd.n528 82.0711
R592 gnd.n528 gnd.n527 82.0711
R593 gnd.n89 gnd.n86 82.0711
R594 gnd.n90 gnd.n89 82.0711
R595 gnd.n90 gnd.n71 82.0711
R596 gnd.n96 gnd.n71 82.0711
R597 gnd.n97 gnd.n96 82.0711
R598 gnd.n125 gnd.n97 82.0711
R599 gnd.n125 gnd.n124 82.0711
R600 gnd.n124 gnd.n123 82.0711
R601 gnd.n123 gnd.n100 82.0711
R602 gnd.n114 gnd.n100 82.0711
R603 gnd.n115 gnd.n114 82.0711
R604 gnd.n595 gnd.n594 82.0711
R605 gnd.n594 gnd.n593 82.0711
R606 gnd.n593 gnd.n12 82.0711
R607 gnd.n587 gnd.n12 82.0711
R608 gnd.n587 gnd.n586 82.0711
R609 gnd.n586 gnd.n585 82.0711
R610 gnd.n585 gnd.n24 82.0711
R611 gnd.n579 gnd.n24 82.0711
R612 gnd.n579 gnd.n578 82.0711
R613 gnd.n578 gnd.n577 82.0711
R614 gnd.n577 gnd.n37 82.0711
R615 gnd gnd.t9 79.0672
R616 gnd gnd.t60 79.0672
R617 gnd gnd.t66 79.0672
R618 gnd gnd.t45 79.0672